Circuit: * C:\Users\Evan.JUNKRAT\Desktop\VLSI\Lab4\Part2.asc

WARNING: Less than two connections to node d0.  This node is used by a4.
WARNING: Less than two connections to node d1.  This node is used by a5.
WARNING: Less than two connections to node d2.  This node is used by a6.
WARNING: Less than two connections to node d3.  This node is used by a7.
WARNING: Less than two connections to node d4.  This node is used by a8.
WARNING: Less than two connections to node d5.  This node is used by a9.
WARNING: Less than two connections to node d6.  This node is used by a10.
WARNING: Less than two connections to node d7.  This node is used by a11.
Direct Newton iteration for .op point succeeded.

Date: Mon Sep 18 17:12:43 2023
Total elapsed time: 0.091 seconds.

tnom = 27
temp = 27
method = modified trap
totiter = 2748
traniter = 2744
tranpoints = 1367
accept = 1302
rejected = 65
matrix size = 17
fillins = 0
solver = Normal
Avg thread counts: 1.2/1.5/1.5/1.2
Matrix Compiler1: 300 bytes object code size  0.3/0.2/[0.1]
Matrix Compiler2: off  [0.2]/0.3/0.3

