Circuit: * C:\Users\Evan.JUNKRAT\Desktop\VLSI\Lab4\Part1.asc

WARNING: Less than two connections to node m.  This node is used by a8.
Direct Newton iteration for .op point succeeded.

Date: Mon Sep 18 16:23:37 2023
Total elapsed time: 0.076 seconds.

tnom = 27
temp = 27
method = modified trap
totiter = 2985
traniter = 2982
tranpoints = 1488
accept = 1403
rejected = 85
matrix size = 20
fillins = 0
solver = Normal
Avg thread counts: 1.2/1.4/1.4/1.2
Matrix Compiler1: 396 bytes object code size  0.2/0.2/[0.2]
Matrix Compiler2: 868 bytes object code size  0.2/0.3/[0.2]

