Circuit: * C:\Users\Evan.JUNKRAT\Desktop\VLSI\Lab2\Lab2Part3.asc

Direct Newton iteration for .op point succeeded.

Date: Thu Aug 31 12:54:14 2023
Total elapsed time: 0.045 seconds.

tnom = 27
temp = 27
method = modified trap
totiter = 2532
traniter = 2529
tranpoints = 1257
accept = 1196
rejected = 61
matrix size = 6
fillins = 0
solver = Normal
Avg thread counts: 1.3/1.5/1.5/1.3
Matrix Compiler1: off  [0.1]/0.1/0.2
Matrix Compiler2: off  [0.1]/0.2/0.1

