Circuit: * C:\Users\Evan.JUNKRAT\Desktop\VLSI\Lab2\Lab2Part2.asc

Direct Newton iteration for .op point succeeded.

Date: Thu Aug 31 12:43:47 2023
Total elapsed time: 0.043 seconds.

tnom = 27
temp = 27
method = modified trap
totiter = 2454
traniter = 2451
tranpoints = 1222
accept = 1174
rejected = 48
matrix size = 6
fillins = 0
solver = Normal
Avg thread counts: 1.3/1.5/1.5/1.3
Matrix Compiler1: 146 bytes object code size  0.1/0.1/[0.1]
Matrix Compiler2: 306 bytes object code size  0.1/0.2/[0.1]

