Circuit: * C:\Users\Evan.JUNKRAT\Desktop\VLSI\Lab3\Draft2.asc

Direct Newton iteration for .op point succeeded.

Date: Wed Sep 13 13:31:17 2023
Total elapsed time: 0.229 seconds.

tnom = 27
temp = 27
method = modified trap
totiter = 5745
traniter = 5731
tranpoints = 2045
accept = 1790
rejected = 255
matrix size = 12
fillins = 2
solver = Normal
Avg thread counts: 2.1/1.3/1.3/1.1
Matrix Compiler1: 1.06 KB object code size  0.8/0.3/[0.2]
Matrix Compiler2: 1.28 KB object code size  0.2/0.3/[0.1]

