Circuit: * C:\Users\Evan.JUNKRAT\Desktop\VLSI\Lab3\Part2.asc

Direct Newton iteration for .op point succeeded.

Date: Wed Sep 13 13:07:40 2023
Total elapsed time: 0.180 seconds.

tnom = 27
temp = 27
method = modified trap
totiter = 6072
traniter = 6054
tranpoints = 2603
accept = 2246
rejected = 357
matrix size = 14
fillins = 0
solver = Normal
Avg thread counts: 1.1/1.2/1.3/1.1
Matrix Compiler1: 582 bytes object code size  0.3/0.3/[0.2]
Matrix Compiler2: 1.11 KB object code size  0.3/0.3/[0.2]

