Circuit: * C:\Users\Evan.JUNKRAT\Desktop\VLSI\Lab3\Part1.asc

Direct Newton iteration for .op point succeeded.

Date: Wed Sep 13 11:24:58 2023
Total elapsed time: 0.107 seconds.

tnom = 27
temp = 27
method = modified trap
totiter = 3153
traniter = 3146
tranpoints = 1521
accept = 1421
rejected = 100
matrix size = 5
fillins = 0
solver = Normal
Avg thread counts: 1.2/1.4/1.4/1.2
Matrix Compiler1:      12 opcodes  0.2/[0.2]/0.2
Matrix Compiler2: 311 bytes object code size  0.2/0.2/[0.2]

